*Heading
** Job name: Demo_3D_RVE Model name: 3D_RVE
** Generated by: Abaqus/CAE 2017
*Preprint, echo=NO, model=NO, history=NO, contact=NO
**
** PARTS
**
*Part, name=RVE
*Node
      1,         0.25,        -0.25,         0.25
      2,         0.25,       -0.125,         0.25
      3,         0.25, -0.0883883461,  0.338388354
      4,         0.25,        -0.25,          0.5
      5,         0.25,        -0.25,           0.
      6,         0.25, -0.0883883461,  0.161611646
      7,         0.25,           0.,           0.
      8,         0.25,           0.,        0.125
      9,         0.25,         0.25,           0.
     10,         0.25, 0.0883883461,  0.161611646
     11,         0.25,           0.,        0.375
     12,         0.25,           0.,          0.5
     13,         0.25, 0.0883883461,  0.338388354
     14,         0.25,         0.25,          0.5
     15,         0.25,         0.25,         0.25
     16,         0.25,        0.125,         0.25
     17,        -0.25,       -0.125,         0.25
     18,        -0.25,        -0.25,          0.5
     19,        -0.25,         0.25,          0.5
     20,        -0.25,         0.25,           0.
** ... 7555 like lines cut
*Element, type=C3D8
   1,   46,  354,   31,    1, 1248, 2283, 2259, 1247
   2,  354,  355,   32,   31, 2283, 2284, 2260, 2259
   3,  355,  356,   33,   32, 2284, 2285, 2261, 2260
   4,  356,   34,    2,   33, 2285,  637,  636, 2261
   5,   45,  357,  354,   46, 1249, 2286, 2283, 1248
   6,  357,  358,  355,  354, 2286, 2287, 2284, 2283
   7,  358,  359,  356,  355, 2287, 2288, 2285, 2284
   8,  359,   35,   34,  356, 2288,  638,  637, 2285
   9,   44,  360,  357,   45, 1250, 2289, 2286, 1249
  10,  360,  361,  358,  357, 2289, 2290, 2287, 2286
  11,  361,  362,  359,  358, 2290, 2291, 2288, 2287
  12,  362,   36,   35,  359, 2291,  639,  638, 2288
  13,   43,  363,  360,   44, 1251, 2292, 2289, 1250
  14,  363,  364,  361,  360, 2292, 2293, 2290, 2289
  15,  364,  365,  362,  361, 2293, 2294, 2291, 2290
  16,  365,   37,   36,  362, 2294,  640,  639, 2291
  17,   42,  366,  363,   43, 1252, 2295, 2292, 1251
  18,  366,  367,  364,  363, 2295, 2296, 2293, 2292
  19,  367,  368,  365,  364, 2296, 2297, 2294, 2293
  20,  368,   38,   37,  365, 2297,  641,  640, 2294
** ... 6700 like lines cut
*Nset, nset=_PickedSet26, internal
    2,    3,    6,    8,   10,   11,   13,   16,   17,   22,   23,   24,   25,   26,   27,   28
   29,   30,   34,   35,   36,   37,   38,   55,   56,   57,   58,   59,   63,   64,   65,   66
   67,   81,   82,   83,   84,   85,   86,   87,   88,   89,   90,  107,  108,  109,  110,  111
  120,  121,  122,  123,  124,  130,  131,  132,  133,  134,  187,  188,  189,  190,  191,  192
  193,  194,  195,  196,  197,  198,  199,  200,  201,  202,  203,  204,  205,  206,  207,  208
  209,  210,  211,  212,  213,  214,  215,  216,  217,  218,  219,  220,  221,  222,  223,  224
  225,  226,  227,  228,  229,  230,  231,  232,  233,  278,  279,  280,  281,  282,  283,  284
  285,  286,  287,  288,  289,  290,  291,  292,  293,  294,  295,  296,  297,  298,  299,  300
  301,  302,  303,  304,  305,  306,  307,  308,  309,  310,  311,  312,  313,  314,  315,  316
  317,  318,  319,  320,  321,  322,  323,  324,  325,  326,  327,  328,  329,  330,  331,  332
  333,  334,  335,  336,  337,  338,  339,  340,  341,  342,  343,  344,  345,  346,  347,  348
  349,  350,  351,  352,  353,  618,  619,  620,  621,  622,  623,  624,  625,  626,  627,  628
  629,  630,  631,  632,  633,  634,  635,  636,  637,  638,  639,  640,  641,  642,  643,  644
  645,  646,  647,  648,  649,  650,  651,  652,  653,  654,  655,  656,  657,  658,  659,  660
  661,  662,  663,  664,  665,  666,  667,  668,  669,  670,  671,  672,  673,  674,  675,  676
  677,  678,  679,  680,  681,  682,  683,  684,  685,  686,  687,  688,  689,  690,  691,  692
  693,  694,  695,  696,  697,  698,  699,  700,  701,  702,  703,  704,  705,  706,  707,  708
  709,  710,  711,  712,  713,  714,  715,  716,  717,  718,  719,  720,  721,  722,  723,  724
  725,  726,  727,  728,  729,  730,  731,  732,  733,  734,  735,  736,  737,  738,  739,  740
  741,  742,  743,  744,  745,  746,  747,  748,  749,  750,  751,  752,  753,  754,  755,  756
** ... 274 like lines cut
*Elset, elset=_PickedSet26, internal, generate
 2689,  6720,     1
*Nset, nset=_PickedSet27, internal
    1,    2,    3,    4,    5,    6,    7,    8,    9,   10,   11,   12,   13,   14,   15,   16
   17,   18,   19,   20,   21,   31,   32,   33,   34,   35,   36,   37,   38,   39,   40,   41
   42,   43,   44,   45,   46,   47,   48,   49,   50,   51,   52,   53,   54,   55,   56,   57
   58,   59,   60,   61,   62,   63,   64,   65,   66,   67,   68,   69,   70,   71,   72,   73
   74,   75,   76,   77,   78,   79,   80,   81,   82,   83,   84,   85,   86,   87,   88,   89
   90,   91,   92,   93,   94,   95,   96,   97,   98,   99,  100,  101,  102,  103,  104,  105
  106,  107,  108,  109,  110,  111,  112,  113,  114,  115,  116,  117,  118,  119,  120,  121
  122,  123,  124,  125,  126,  127,  128,  129,  130,  131,  132,  133,  134,  135,  136,  137
  138,  139,  140,  141,  142,  143,  144,  145,  146,  147,  148,  149,  150,  151,  152,  153
  154,  155,  156,  157,  158,  159,  160,  161,  162,  163,  164,  165,  166,  167,  168,  169
  170,  171,  172,  173,  174,  175,  176,  177,  178,  179,  180,  181,  182,  183,  184,  185
  186,  187,  188,  189,  190,  191,  192,  193,  194,  195,  196,  197,  198,  199,  200,  201
  202,  203,  204,  205,  206,  207,  208,  209,  210,  211,  212,  213,  214,  215,  216,  217
  218,  219,  220,  221,  222,  223,  224,  225,  226,  227,  228,  229,  230,  231,  232,  233
  234,  235,  236,  237,  238,  239,  240,  241,  242,  243,  244,  245,  246,  247,  248,  249
  250,  251,  252,  253,  254,  255,  256,  257,  258,  259,  260,  261,  262,  263,  264,  265
  266,  267,  268,  269,  270,  271,  272,  273,  274,  275,  276,  277,  354,  355,  356,  357
  358,  359,  360,  361,  362,  363,  364,  365,  366,  367,  368,  369,  370,  371,  372,  373
  374,  375,  376,  377,  378,  379,  380,  381,  382,  383,  384,  385,  386,  387,  388,  389
  390,  391,  392,  393,  394,  395,  396,  397,  398,  399,  400,  401,  402,  403,  404,  405
** ... 205 like lines cut
*Elset, elset=_PickedSet27, internal, generate
    1,  2688,     1
** Section: Solid_Epoxy
*Solid Section, elset=_PickedSet27, material=Epoxy
,
** Section: Solid_Carbon
*Solid Section, elset=_PickedSet26, material=Carbon
,
*End Part
**  
**
** ASSEMBLY
**
*Assembly, name=Assembly
**  
*Instance, name=RVE-1, part=RVE
*End Instance
**  
*End Assembly
** 
** MATERIALS
** 
*Material, name=Carbon
*Elastic
200000., 0.2
*Material, name=Epoxy
*Elastic
3500., 0.34
*Plastic
 30.,     0.
 35., 0.0005
 40., 0.0015
 45.,  0.003
 50.,  0.005
 55., 0.0075
 60., 0.0105
 65.,  0.014
 70.,  0.018
 75., 0.0225
 80., 0.0275
 85.,  0.033
 90.,  0.039
 95., 0.0455
100., 0.0525
105.,   0.06
110.,  0.068
115., 0.0765
120., 0.0855
125.,  0.095
** ... 15 like lines cut
