*Heading
** Job name: Demo_3D_Macro Model name: 3D_Macro
** Generated by: Abaqus/CAE 2017
*Preprint, echo=NO, model=NO, history=NO, contact=NO
**
** PARTS
**
*Part, name=Macro
*Node
      1,        -100.,         -10.,          20.
      2,        -100.,           0.,          20.
      3,        -100.,          10.,          20.
      4,        -100.,         -10.,          10.
      5,        -100.,           0.,          10.
      6,        -100.,          10.,          10.
      7,        -100.,         -10.,           0.
      8,        -100.,           0.,           0.
      9,        -100.,          10.,           0.
     10,         -80.,         -10.,          20.
     11,         -80.,           0.,          20.
     12,         -80.,          10.,          20.
     13,         -80.,         -10.,          10.
     14,         -80.,           0.,          10.
     15,         -80.,          10.,          10.
     16,         -80.,         -10.,           0.
     17,         -80.,           0.,           0.
     18,         -80.,          10.,           0.
     19,         -60.,         -10.,          20.
     20,         -60.,           0.,          20.
** ... 79 like lines cut
*Element, type=C3D8
 1, 10, 11, 14, 13,  1,  2,  5,  4
 2, 11, 12, 15, 14,  2,  3,  6,  5
 3, 13, 14, 17, 16,  4,  5,  8,  7
 4, 14, 15, 18, 17,  5,  6,  9,  8
 5, 19, 20, 23, 22, 10, 11, 14, 13
 6, 20, 21, 24, 23, 11, 12, 15, 14
 7, 22, 23, 26, 25, 13, 14, 17, 16
 8, 23, 24, 27, 26, 14, 15, 18, 17
 9, 28, 29, 32, 31, 19, 20, 23, 22
10, 29, 30, 33, 32, 20, 21, 24, 23
11, 31, 32, 35, 34, 22, 23, 26, 25
12, 32, 33, 36, 35, 23, 24, 27, 26
13, 37, 38, 41, 40, 28, 29, 32, 31
14, 38, 39, 42, 41, 29, 30, 33, 32
15, 40, 41, 44, 43, 31, 32, 35, 34
16, 41, 42, 45, 44, 32, 33, 36, 35
17, 46, 47, 50, 49, 37, 38, 41, 40
18, 47, 48, 51, 50, 38, 39, 42, 41
19, 49, 50, 53, 52, 40, 41, 44, 43
20, 50, 51, 54, 53, 41, 42, 45, 44
** ... 20 like lines cut
*Nset, nset=_PickedSet2, internal, generate
  1,  99,   1
*Elset, elset=_PickedSet2, internal, generate
  1,  40,   1
** Section: Solid_Placeholder
*Solid Section, elset=_PickedSet2, material=Placeholder
,
*End Part
**  
**
** ASSEMBLY
**
*Assembly, name=Assembly
**  
*Instance, name=Macro-1, part=Macro
*End Instance
**  
*Nset, nset=_PickedSet4, internal, instance=Macro-1, generate
 1,  9,  1
*Elset, elset=_PickedSet4, internal, instance=Macro-1, generate
 1,  4,  1
*Nset, nset=_PickedSet5, internal, instance=Macro-1, generate
 91,  99,   1
*Elset, elset=_PickedSet5, internal, instance=Macro-1, generate
 37,  40,   1
*End Assembly
** 
** MATERIALS
** 
*Material, name=Placeholder
*Elastic
 1e-10, 1e-10
** ----------------------------------------------------------------
** 
** STEP: Step-1
** 
*Step, name=Step-1, nlgeom=NO
*Static
1., 1., 1e-05, 1.
** 
** BOUNDARY CONDITIONS
** 
** Name: BC-1 Type: Displacement/Rotation
*Boundary
_PickedSet4, 1, 1
_PickedSet4, 2, 2
_PickedSet4, 3, 3
** Name: BC-2 Type: Displacement/Rotation
*Boundary
_PickedSet5, 3, 3, 10.
** 
** OUTPUT REQUESTS
** 
*Restart, write, frequency=0
** 
** FIELD OUTPUT: F-Output-1
** 
*Output, field, variable=PRESELECT
** 
** HISTORY OUTPUT: H-Output-1
** 
*Output, history, variable=PRESELECT
*End Step
