*Heading
** Job name: Demo_2D_RVE Model name: 2D_RVE
** Generated by: Abaqus/CAE 2017
*Preprint, echo=NO, model=NO, history=NO, contact=NO
**
** PARTS
**
*Part, name=RVE
*Node
      1,         0.25,         0.25
      2,        -0.25,         0.25
      3,        -0.25,        -0.25
      4,         0.25,        -0.25
      5,        0.125,           0.
      6,  0.224999994,         0.25
      7,  0.200000003,         0.25
      8,  0.174999997,         0.25
      9,  0.150000006,         0.25
     10,        0.125,         0.25
     11,  0.100000001,         0.25
     12,  0.075000003,         0.25
     13, 0.0500000007,         0.25
     14, 0.0250000004,         0.25
     15,           0.,         0.25
     16, -0.0250000004,         0.25
     17, -0.0500000007,         0.25
     18, -0.075000003,         0.25
     19, -0.100000001,         0.25
     20,       -0.125,         0.25
** ... 512 like lines cut
*Element, type=CPS4
  1, 138,  16,  17, 139
  2,  23, 146, 145,  22
  3,  18, 140, 139,  17
  4, 115, 243,  27,  28
  5,  33,  34, 153, 116
  6, 242, 147, 148, 215
  7,  55, 174, 173,  54
  8,  62, 180, 244,  61
  9, 108, 176, 206, 109
 10, 119,  64,  65, 178
 11, 299, 305, 206, 176
 12, 129,  73,  74, 128
 13,  68, 184, 183,  67
 14, 204, 103, 102, 165
 15, 164,  47,  48, 166
 16, 123,  46,  47, 164
 17, 214, 245, 123, 164
 18, 245, 250, 162, 123
 19,  37,  38, 158, 124
 20, 132,  11,  12, 133
** ... 471 like lines cut
*Nset, nset=_PickedSet3, internal, generate
   1,  419,    1
*Elset, elset=_PickedSet3, internal, generate
   1,  363,    1
*Nset, nset=_PickedSet4, internal
   5,  82,  83,  84,  85,  86,  87,  88,  89,  90,  91,  92,  93,  94,  95,  96
  97,  98,  99, 100, 101, 102, 103, 104, 105, 106, 107, 108, 109, 110, 111, 112
 420, 421, 422, 423, 424, 425, 426, 427, 428, 429, 430, 431, 432, 433, 434, 435
 436, 437, 438, 439, 440, 441, 442, 443, 444, 445, 446, 447, 448, 449, 450, 451
 452, 453, 454, 455, 456, 457, 458, 459, 460, 461, 462, 463, 464, 465, 466, 467
 468, 469, 470, 471, 472, 473, 474, 475, 476, 477, 478, 479, 480, 481, 482, 483
 484, 485, 486, 487, 488, 489, 490, 491, 492, 493, 494, 495, 496, 497, 498, 499
 500, 501, 502, 503, 504, 505, 506, 507, 508, 509, 510, 511, 512, 513, 514, 515
 516, 517, 518, 519, 520, 521, 522, 523, 524, 525, 526, 527, 528, 529, 530, 531
 532,
*Elset, elset=_PickedSet4, internal, generate
 364,  491,    1
** Section: Solid_Epoxy
*Solid Section, elset=_PickedSet3, material=Epoxy
1.,
** Section: Solid_Carbon
*Solid Section, elset=_PickedSet4, material=Carbon
1.,
*End Part
**  
**
** ASSEMBLY
**
*Assembly, name=Assembly
**  
*Instance, name=RVE-1, part=RVE
*End Instance
**  
*End Assembly
** 
** MATERIALS
** 
*Material, name=Carbon
*Elastic
200000., 0.2
*Material, name=Epoxy
*Elastic
3500., 0.34
*Plastic
 30.,     0.
 35., 0.0005
 40., 0.0015
 45.,  0.003
 50.,  0.005
 55., 0.0075
 60., 0.0105
 65.,  0.014
 70.,  0.018
 75., 0.0225
 80., 0.0275
 85.,  0.033
 90.,  0.039
 95., 0.0455
100., 0.0525
105.,   0.06
110.,  0.068
115., 0.0765
120., 0.0855
125.,  0.095
** ... 15 like lines cut
